968.0     307.8     22.32
  125.0000       306.1414        21.6119        -1.5301         7.2817
  375.0000       306.3846        20.2619        -1.7192         9.7499
  625.0000       306.4700        19.8180        -2.3777         7.8599
  875.0000       306.6404        18.9102        -3.4806         7.4581
 1125.0000       307.0813        16.4556        -4.0596         7.1567
 1375.0000       307.4373        14.5199        -2.4839         8.8125
 1625.0000       308.9327        12.2693         1.7535         9.0073
 1875.0000       310.1092        10.1853         6.0230         6.0647
 2125.0000       311.6000         6.6820         9.2442         4.0098
 2375.0000       312.5770         2.8252         9.1926         1.8198
 2625.0000       313.5103         2.3035         9.7839         0.6931
 2875.0000       314.2756         1.8956        10.5990         0.0000
 3125.0000       314.5178         1.7212        11.5959         0.0000
 3375.0000       314.7279         1.5537        12.4805        -0.2505
 3625.0000       315.2186         1.3833        12.9083        -1.2286
 3875.0000       316.3814         1.1701        13.1296        -2.1493
 4125.0000       317.4865         0.9882        15.2114        -3.6835
 4375.0000       318.2367         0.8621        15.4770        -4.8227
 4625.0000       318.9742         0.7534        13.8344        -5.6000
 4875.0000       319.7113         0.6552        12.0415        -6.4656
 5125.0000       320.2683         0.5655        10.2293        -7.0499
 5375.0000       320.6966         0.4807        11.7487        -6.2803
 5625.0000       320.9508         0.4400        12.5875        -5.8697
 5875.0000       321.0407         0.4441        12.7760        -5.4146
 6125.0000       321.4369         0.4339        13.3345        -4.8533
 6375.0000       323.2682         0.3463        14.8739        -5.4136
 6625.0000       324.0912         0.2979        16.4374        -5.9827
 6875.0000       324.8360         0.2526        18.0027        -6.5524
 7125.0000       325.5808         0.2073        19.5680        -7.1222
 7375.0000       325.8758         0.1924        20.1847        -7.3466
 7625.0000       326.6887         0.1657        20.6628        -7.8836
 7875.0000       327.5931         0.1379        21.0767        -8.4504
 8125.0000       328.4976         0.1101        21.4906        -9.0173
 8375.0000       329.4020         0.0822        21.9045        -9.5842
 8625.0000       330.5134         0.0655        22.4243       -10.1986
 8875.0000       331.7837         0.0563        23.7042       -10.5383
 9125.0000       333.0457         0.0443        26.5339       -10.1633
 9375.0000       334.1263         0.0343        28.1030       -10.2287
 9625.0000       335.7812         0.0300        29.1203       -10.5989
 9875.0000       338.0704         0.0300        30.2851       -11.0229
10125.0000       339.3048         0.0261        31.2134       -11.3608
10375.0000       340.3618         0.0215        32.1020       -11.6842
10625.0000       341.2530         0.0200        32.5962       -11.1909
10875.0000       343.1477         0.0200        32.9212       -10.1278
11125.0000       345.0423         0.0200        33.2462        -9.0647
11375.0000       345.7500         0.0200        32.9768        -8.2840
11625.0000       348.4014         0.0200        33.1586        -7.2747
11875.0000       354.0102         0.0200        33.3685        -6.2521
12125.0000       357.8809         0.0200        35.5512        -6.2686
12375.0000       359.4766         0.0200        38.5827        -6.8032
12625.0000       362.2969         0.0200        38.0691        -7.1126
12875.0000       362.9778         0.0200        35.9177        -7.6507
13125.0000       364.0686         0.0200        33.8083        -8.1338
13375.0000       365.8290         0.0199        31.7610        -8.4384
13625.0000       367.6406         0.0139        29.3321        -3.2930
13875.0000       369.2592         0.0100        27.7291         1.1117
14125.0000       371.2090         0.0100        25.5304         0.3068
14375.0000       375.5684         0.0100        21.3743        -2.9620
14625.0000       376.8836         0.0100        17.6647        -4.2429
14875.0000       378.1951         0.0100        16.0737        -0.3143
15125.0000       379.5066         0.0100        15.5367         3.1123
15375.0000       382.8954         0.0100        15.3320         4.0550
15625.0000       387.6646         0.0100        11.7817         0.4454
15875.0000       389.4737         0.0100        11.2204         0.2902
16125.0000       390.1316         0.0100        11.8214         1.4784
16375.0000       391.5858         0.0100        11.7512         0.9778
16625.0000       394.0536         0.0100        10.8264        -1.6723
16875.0000       400.7537         0.0100        10.9145        -2.9245
17125.0000       410.6761         0.0100         7.2937        -3.7658
17375.0000       417.1439         0.0100        -0.0278        -2.2460
17625.0000       420.3816         0.0100        -1.2608        -3.4143
17875.0000       423.6193         0.0100        -2.4938        -4.5826
18125.0000       426.8272         0.0100        -2.2958        -5.1491
18375.0000       430.0686         0.0100        -3.0024        -5.3437
18625.0000       435.1522         0.0100        -3.5722        -3.4930
18875.0000       446.8565         0.0100        -3.4440        -0.6073
19125.0000       458.2561         0.0100        -9.1452        -1.6125
19375.0000       463.9885         0.0170        -7.9141         0.7628
19625.0000       477.3182         0.0281        -7.1283         0.9448
19875.0000       486.6434         0.0268        -6.6143        -0.5536
